@<TRIPOS>MOLECULE
smiles:CCC
3 2 1 0 0
SMALL
NO_CHARGES


@<TRIPOS>ATOM
      1 C1          1.5949    1.6353    2.3131 C.3       1 CCC    0.0000
      2 C2          1.0918    1.7399    0.8832 C.3       1 CCC    0.0000
      3 C3          0.5248    0.4195    0.3894 C.3       1 CCC    0.0000
@<TRIPOS>BOND
     1    1    2 1
     2    2    3 1
@<TRIPOS>SUBSTRUCTURE
     1 CCC     1 RESIDUE           4 A     CCC     0 ROOT
