@<TRIPOS>MOLECULE
smiles:CC
2 1 1 0 0
SMALL
NO_CHARGES


@<TRIPOS>ATOM
      1 C1          1.5301    0.8211    1.1278 C.3       1  CC    0.0000
      2 C2          0.0344    0.6461    1.2649 C.3       1  CC    0.0000
@<TRIPOS>BOND
     1    1    2 1
@<TRIPOS>SUBSTRUCTURE
     1  CC     1 RESIDUE           4 A      CC     0 ROOT
