@<TRIPOS>MOLECULE
benzene
12 12 1 0 0
SMALL
NO_CHARGES


@<TRIPOS>ATOM
      1 C1          1.2070    2.0910   -0.0000 C.ar      1 BENZENE    0.0000
      2 C2          2.4140    1.3940    0.0000 C.ar      1 BENZENE    0.0000
      3 C3          2.4140   -0.0000    0.0000 C.ar      1 BENZENE    0.0000
      4 C4          1.2070   -0.6970    0.0000 C.ar      1 BENZENE    0.0000
      5 C5         -0.0000    0.0000    0.0000 C.ar      1 BENZENE    0.0000
      6 C6         -0.0000    1.3940   -0.0000 C.ar      1 BENZENE    0.0000
      7 H1          1.2070    3.1750   -0.0000 H         1 BENZENE    0.0000
      8 H2          3.3530    1.9360    0.0000 H         1 BENZENE    0.0000
      9 H3          3.3530   -0.5420    0.0000 H         1 BENZENE    0.0000
     10 H4          1.2070   -1.7810    0.0000 H         1 BENZENE    0.0000
     11 H5         -0.9390   -0.5420   -0.0000 H         1 BENZENE    0.0000
     12 H6         -0.9390    1.9360   -0.0000 H         1 BENZENE    0.0000
@<TRIPOS>BOND
     1    1    2 2
     2    1    6 1
     3    2    3 1
     4    3    4 2
     5    4    5 1
     6    5    6 2
     7    1    7 1
     8    2    8 1
     9    3    9 1
    10    4   10 1
    11    5   11 1
    12    6   12 1
@<TRIPOS>SUBSTRUCTURE
     1 BENZENE     1 RESIDUE           4 A     BENZENE     0 ROOT
